**
** Heading +++++++++++++++++++++++++++++++++++++++++++++++++
**
*Heading
Hash: tS5Opjyf, Date: 10/07/2025, Unit system: MM_TON_S_C
**
** Nodes +++++++++++++++++++++++++++++++++++++++++++++++++++
**
*Node
1, 0.00000000E+000, -3.00000000E+001, -2.00000000E+001
2, 0.00000000E+000, 3.00000000E+001, -2.00000000E+001
3, 2.00000000E+002, 3.00000000E+001, -2.00000000E+001
4, 2.00000000E+002, -3.00000000E+001, -2.00000000E+001
5, 0.00000000E+000, 3.00000000E+001, 2.00000000E+001
6, 2.00000000E+002, 3.00000000E+001, 2.00000000E+001
7, 0.00000000E+000, -3.00000000E+001, 2.00000000E+001
8, 2.00000000E+002, -3.00000000E+001, 2.00000000E+001
9, 0.00000000E+000, -2.00000000E+001, -2.00000000E+001
10, 0.00000000E+000, -1.00000000E+001, -2.00000000E+001
11, 0.00000000E+000, 3.55271368E-015, -2.00000000E+001
12, 0.00000000E+000, 1.00000000E+001, -2.00000000E+001
13, 0.00000000E+000, 2.00000000E+001, -2.00000000E+001
14, 0.00000000E+000, -2.50000000E+001, -2.00000000E+001
15, 0.00000000E+000, -1.50000000E+001, -2.00000000E+001
16, 0.00000000E+000, -5.00000000E+000, -2.00000000E+001
17, 0.00000000E+000, 5.00000000E+000, -2.00000000E+001
18, 0.00000000E+000, 1.50000000E+001, -2.00000000E+001
19, 0.00000000E+000, 2.50000000E+001, -2.00000000E+001
20, 1.90000000E+002, 3.00000000E+001, -2.00000000E+001
** ... 4702 like lines cut
**
** Elements ++++++++++++++++++++++++++++++++++++++++++++++++
**
*Element, Type=C3D20R, Elset=Solid_part-1
1, 237, 70, 4, 59, 1347, 1050, 232, 1251, 332, 89, 64, 333, 1633, 1110, 1278,
1634, 1632, 1111, 236, 1289
2, 1347, 1050, 232, 1251, 1348, 1049, 231, 1246, 1633, 1110, 1278, 1634, 1636, 1108, 1267,
1637, 1635, 1109, 235, 1279
3, 1348, 1049, 231, 1246, 1349, 1048, 230, 1241, 1636, 1108, 1267, 1637, 1639, 1106, 1256,
1640, 1638, 1107, 234, 1268
4, 1349, 1048, 230, 1241, 743, 173, 8, 216, 1639, 1106, 1256, 1640, 844, 192, 222,
843, 1641, 1105, 233, 1257
5, 238, 237, 59, 60, 1350, 1347, 1251, 1252, 334, 333, 65, 335, 1643, 1634, 1280,
1644, 1642, 1632, 1289, 1290
6, 1350, 1347, 1251, 1252, 1351, 1348, 1246, 1247, 1643, 1634, 1280, 1644, 1646, 1637, 1269,
1647, 1645, 1635, 1279, 1281
7, 1351, 1348, 1246, 1247, 1352, 1349, 1241, 1242, 1646, 1637, 1269, 1647, 1649, 1640, 1258,
1650, 1648, 1638, 1268, 1270
8, 1352, 1349, 1241, 1242, 742, 743, 216, 215, 1649, 1640, 1258, 1650, 842, 843, 221,
841, 1651, 1641, 1257, 1259
9, 239, 238, 60, 61, 1353, 1350, 1252, 1253, 336, 335, 66, 337, 1653, 1644, 1282,
1654, 1652, 1642, 1290, 1291
10, 1353, 1350, 1252, 1253, 1354, 1351, 1247, 1248, 1653, 1644, 1282, 1654, 1656, 1647, 1271,
1657, 1655, 1645, 1281, 1283
** ... 940 like lines cut
*Element, Type=C3D10, Elset=Solid_part-2
481, 2704, 2777, 2716, 2712, 3139, 3140, 2898, 2908, 3141, 2909
482, 2713, 2777, 2706, 2712, 3142, 3143, 2887, 2888, 3141, 2884
483, 2730, 2775, 2748, 2753, 3144, 3145, 3034, 3063, 3146, 3086
484, 2750, 2755, 2759, 2777, 3059, 3076, 3075, 3147, 3148, 3149
485, 2720, 2716, 2776, 2777, 2926, 3150, 3151, 3152, 3140, 3153
486, 2672, 2770, 2769, 2699, 3125, 3128, 3123, 2822, 3154, 3155
487, 2717, 2722, 2776, 2711, 2927, 3156, 3157, 2904, 2928, 3158
488, 2776, 2718, 2722, 2721, 3159, 2931, 3156, 3160, 2932, 2930
489, 2767, 2762, 2780, 2763, 3112, 3161, 3162, 3115, 3096, 3163
490, 2670, 2669, 2698, 2768, 2818, 2820, 2819, 3120, 3119, 3164
491, 2776, 2718, 2719, 2708, 3159, 2923, 3165, 3166, 2914, 2924
492, 2744, 2779, 2728, 2729, 3167, 3168, 3022, 3020, 3169, 2964
493, 2678, 2679, 2702, 2777, 2845, 2846, 2842, 3170, 3171, 3172
494, 2715, 2777, 2719, 2776, 3173, 3174, 2916, 3175, 3153, 3165
495, 2716, 2777, 2720, 2712, 3140, 3152, 2926, 2909, 3141, 2925
496, 2659, 2660, 2691, 2762, 2788, 2790, 2789, 3090, 3093, 3176
497, 2713, 2777, 2720, 2710, 3142, 3152, 2919, 2889, 3177, 2918
498, 2676, 2701, 2776, 2677, 2833, 3178, 3179, 2839, 2838, 3180
499, 2772, 2724, 2738, 2779, 3181, 3011, 3182, 3183, 3184, 3185
500, 2726, 2664, 2778, 2725, 2953, 3186, 3187, 2955, 2952, 3188
** ... 298 like lines cut
*Element, Type=C3D20, Elset=Solid_part-3
799, 3502, 3395, 3349, 3384, 4092, 3895, 3497, 3996, 3547, 3404, 3389, 3548, 4228, 3925, 4023,
4229, 4227, 3926, 3501, 4034
800, 4092, 3895, 3497, 3996, 4093, 3894, 3496, 3991, 4228, 3925, 4023, 4229, 4231, 3923, 4012,
4232, 4230, 3924, 3500, 4024
801, 4093, 3894, 3496, 3991, 4094, 3893, 3495, 3986, 4231, 3923, 4012, 4232, 4234, 3921, 4001,
4235, 4233, 3922, 3499, 4013
802, 4094, 3893, 3495, 3986, 3748, 3458, 3353, 3481, 4234, 3921, 4001, 4235, 3799, 3467, 3487,
3798, 4236, 3920, 3498, 4002
803, 3503, 3502, 3384, 3385, 4095, 4092, 3996, 3997, 3549, 3548, 3390, 3550, 4238, 4229, 4025,
4239, 4237, 4227, 4034, 4035
804, 4095, 4092, 3996, 3997, 4096, 4093, 3991, 3992, 4238, 4229, 4025, 4239, 4241, 4232, 4014,
4242, 4240, 4230, 4024, 4026
805, 4096, 4093, 3991, 3992, 4097, 4094, 3986, 3987, 4241, 4232, 4014, 4242, 4244, 4235, 4003,
4245, 4243, 4233, 4013, 4015
806, 4097, 4094, 3986, 3987, 3747, 3748, 3481, 3480, 4244, 4235, 4003, 4245, 3797, 3798, 3486,
3796, 4246, 4236, 4002, 4004
807, 3504, 3503, 3385, 3386, 4098, 4095, 3997, 3998, 3551, 3550, 3391, 3552, 4248, 4239, 4027,
4249, 4247, 4237, 4035, 4036
808, 4098, 4095, 3997, 3998, 4099, 4096, 3992, 3993, 4248, 4239, 4027, 4249, 4251, 4242, 4016,
4252, 4250, 4240, 4026, 4028
** ... 460 like lines cut
**
** Node sets +++++++++++++++++++++++++++++++++++++++++++++++
**
*Nset, Nset=Internal-1_MotorSurface
3348, 3349, 3351, 3353, 3384, 3385, 3386, 3387, 3388, 3389, 3390, 3391, 3392, 3393, 3394, 3440, 
3441, 3442, 3443, 3444, 3445, 3446, 3477, 3478, 3479, 3480, 3481, 3482, 3483, 3484, 3485, 3486, 
3487, 3495, 3496, 3497, 3498, 3499, 3500, 3501, 3986, 3987, 3988, 3989, 3990, 3991, 3992, 3993, 
3994, 3995, 3996, 3997, 3998, 3999, 4000, 4001, 4002, 4003, 4004, 4005, 4006, 4007, 4008, 4009, 
4010, 4011, 4012, 4013, 4014, 4015, 4016, 4017, 4018, 4019, 4020, 4021, 4022, 4023, 4024, 4025, 
4026, 4027, 4028, 4029, 4030, 4031, 4032, 4033, 4034, 4035, 4036, 4037, 4038
*Nset, Nset=Internal-1_BC
1, 2, 5, 7, 9, 10, 11, 12, 13, 14, 15, 16, 17, 18, 19, 109, 
110, 111, 112, 113, 114, 115, 162, 163, 164, 165, 166, 167, 168, 169, 170, 171, 
172, 223, 224, 225, 226, 227, 228, 229, 1294, 1295, 1296, 1297, 1298, 1299, 1300, 1301, 
1302, 1303, 1304, 1305, 1306, 1307, 1308, 1309, 1310, 1311, 1312, 1313, 1314, 1315, 1316, 1317, 
1318, 1319, 1320, 1321, 1322, 1323, 1324, 1325, 1326, 1327, 1328, 1329, 1330, 1331, 1332, 1333, 
1334, 1335, 1336, 1337, 1338, 1339, 1340, 1341, 1342, 1343, 1344, 1345, 1346
*Nset, Nset=Internal-1_Internal_Selection-1_Solid_part-1_to_Solid_part-2_Master
3, 4, 6, 8, 59, 60, 61, 62, 63, 64, 65, 66, 67, 68, 69, 155, 
156, 157, 158, 159, 160, 161, 212, 213, 214, 215, 216, 217, 218, 219, 220, 221, 
222, 230, 231, 232, 233, 234, 235, 236, 1241, 1242, 1243, 1244, 1245, 1246, 1247, 1248, 
1249, 1250, 1251, 1252, 1253, 1254, 1255, 1256, 1257, 1258, 1259, 1260, 1261, 1262, 1263, 1264, 
1265, 1266, 1267, 1268, 1269, 1270, 1271, 1272, 1273, 1274, 1275, 1276, 1277, 1278, 1279, 1280, 
1281, 1282, 1283, 1284, 1285, 1286, 1287, 1288, 1289, 1290, 1291, 1292, 1293
*Nset, Nset=Internal-1_Internal_Selection-1_Solid_part-1_to_Solid_part-2_Slave
2656, 2657, 2669, 2670, 2671, 2672, 2673, 2680, 2681, 2682, 2683, 2684, 2768, 2769, 2770, 2771, 
2772, 2773, 2774, 2816, 2818, 2821, 2824, 2835, 2836, 2837, 2843, 2844, 2849, 2866, 2935, 2936, 
2937, 2938, 2939, 2941, 2944, 2947, 2993, 2996, 3118, 3119, 3120, 3121, 3122, 3123, 3124, 3125, 
3126, 3127, 3128, 3129, 3130, 3131, 3132, 3133, 3134, 3135, 3136, 3137, 3138
*Nset, Nset=Internal-1_Internal_Selection-1_Solid_part-3_to_Solid_part-2_Master
3346, 3347, 3350, 3352, 3354, 3355, 3356, 3357, 3358, 3359, 3360, 3361, 3362, 3363, 3364, 3414, 
3415, 3416, 3417, 3418, 3419, 3420, 3447, 3448, 3449, 3450, 3451, 3452, 3453, 3454, 3455, 3456, 
3457, 3488, 3489, 3490, 3491, 3492, 3493, 3494, 4039, 4040, 4041, 4042, 4043, 4044, 4045, 4046, 
4047, 4048, 4049, 4050, 4051, 4052, 4053, 4054, 4055, 4056, 4057, 4058, 4059, 4060, 4061, 4062, 
4063, 4064, 4065, 4066, 4067, 4068, 4069, 4070, 4071, 4072, 4073, 4074, 4075, 4076, 4077, 4078, 
4079, 4080, 4081, 4082, 4083, 4084, 4085, 4086, 4087, 4088, 4089, 4090, 4091
*Nset, Nset=Internal-1_Internal_Selection-1_Solid_part-3_to_Solid_part-2_Slave
2654, 2655, 2658, 2659, 2660, 2661, 2662, 2685, 2686, 2687, 2688, 2689, 2761, 2762, 2763, 2764, 
2765, 2766, 2767, 2782, 2785, 2788, 2792, 2796, 2800, 2949, 2966, 2968, 2971, 2975, 2979, 3088, 
3089, 3090, 3091, 3092, 3093, 3094, 3095, 3096, 3097, 3098, 3099, 3100, 3101, 3102, 3103, 3104, 
3105, 3106, 3107, 3108, 3109, 3110, 3111, 3112, 3113, 3114, 3115, 3116, 3117
*Nset, Nset=Internal-1_TestSurface
33, 34, 35, 53, 54, 129, 130, 131, 149, 150, 585, 586, 587, 588, 589, 590, 
591, 592, 593, 694, 696, 698, 700, 701, 702, 703, 704, 705, 706, 707, 708, 709, 
710, 711, 712, 713, 714
**
** Additional node sets ++++++++++++++++++++++++++++++++++++
**
*Nset, Nset=MotorCenterPt_Ref_47181
4719
*Nset, Nset=MotorCenterPt_Rot_47182
4720
*Nset, Nset=BC_refpt_Ref_47201
4721
*Nset, Nset=BC_refpt_Rot_47202
4722

**
** Element sets ++++++++++++++++++++++++++++++++++++++++++++
**
*Elset, Elset=Internal_Selection-1_Solid_Section-1
Solid_part-1, 
Solid_part-2, 
Solid_part-3
*Elset, Elset=Internal-1_MotorSurface_S5
799, 800, 801, 802, 803, 804, 805, 806, 807, 808, 809, 810, 811, 812, 813, 814, 
815, 816, 817, 818, 819, 820, 821, 822
*Elset, Elset=Internal-1_BC_S3
457, 458, 459, 460, 461, 462, 463, 464, 465, 466, 467, 468, 469, 470, 471, 472, 
473, 474, 475, 476, 477, 478, 479, 480
*Elset, Elset=Internal-1_Internal_Selection-1_Solid_part-1_to_Solid_part-2_Master_S5
1, 2, 3, 4, 5, 6, 7, 8, 9, 10, 11, 12, 13, 14, 15, 16, 
17, 18, 19, 20, 21, 22, 23, 24
*Elset, Elset=Internal-1_Internal_Selection-1_Solid_part-1_to_Solid_part-2_Slave_S1
486, 511, 519, 583, 624, 671, 775, 780, 789
*Elset, Elset=Internal-1_Internal_Selection-1_Solid_part-1_to_Solid_part-2_Slave_S2
490, 533, 655, 669, 670, 704, 753
*Elset, Elset=Internal-1_Internal_Selection-1_Solid_part-1_to_Solid_part-2_Slave_S3
522, 680, 721, 731, 757
*Elset, Elset=Internal-1_Internal_Selection-1_Solid_part-1_to_Solid_part-2_Slave_S4
696, 714, 727
*Elset, Elset=Internal-1_Internal_Selection-1_Solid_part-3_to_Solid_part-2_Master_S3
1015, 1016, 1017, 1018, 1019, 1020, 1021, 1022, 1023, 1024, 1025, 1026, 1027, 1028, 1029, 1030, 
1031, 1032, 1033, 1034, 1035, 1036, 1037, 1038
*Elset, Elset=Internal-1_Internal_Selection-1_Solid_part-3_to_Solid_part-2_Slave_S2
489, 496, 513, 528, 535, 593, 606, 637, 660, 662, 767
*Elset, Elset=Internal-1_Internal_Selection-1_Solid_part-3_to_Solid_part-2_Slave_S4
547, 642
*Elset, Elset=Internal-1_Internal_Selection-1_Solid_part-3_to_Solid_part-2_Slave_S3
574, 587, 656, 703, 770, 773, 790, 797
*Elset, Elset=Internal-1_Internal_Selection-1_Solid_part-3_to_Solid_part-2_Slave_S1
580, 611, 613
*Elset, Elset=Internal-1_TestSurface_S6
357, 358, 359, 360, 381, 382, 383, 384
**
** Surfaces ++++++++++++++++++++++++++++++++++++++++++++++++
**
*Surface, Name=MotorSurface, Type=Element
Internal-1_MotorSurface_S5, S5
*Surface, Name=TestSurface, Type=Element
Internal-1_TestSurface_S6, S6
*Surface, Name=BC, Type=Element
Internal-1_BC_S3, S3
*Surface, Name=Internal_Selection-1_Solid_part-1_to_Solid_part-2_Master, Type=Element
Internal-1_Internal_Selection-1_Solid_part-1_to_Solid_part-2_Master_S5, S5
*Surface, Name=Internal_Selection-1_Solid_part-1_to_Solid_part-2_Slave, Type=Element
Internal-1_Internal_Selection-1_Solid_part-1_to_Solid_part-2_Slave_S1, S1
Internal-1_Internal_Selection-1_Solid_part-1_to_Solid_part-2_Slave_S2, S2
Internal-1_Internal_Selection-1_Solid_part-1_to_Solid_part-2_Slave_S3, S3
Internal-1_Internal_Selection-1_Solid_part-1_to_Solid_part-2_Slave_S4, S4
*Surface, Name=Internal_Selection-1_Solid_part-3_to_Solid_part-2_Master, Type=Element
Internal-1_Internal_Selection-1_Solid_part-3_to_Solid_part-2_Master_S3, S3
*Surface, Name=Internal_Selection-1_Solid_part-3_to_Solid_part-2_Slave, Type=Element
Internal-1_Internal_Selection-1_Solid_part-3_to_Solid_part-2_Slave_S2, S2
Internal-1_Internal_Selection-1_Solid_part-3_to_Solid_part-2_Slave_S4, S4
Internal-1_Internal_Selection-1_Solid_part-3_to_Solid_part-2_Slave_S3, S3
Internal-1_Internal_Selection-1_Solid_part-3_to_Solid_part-2_Slave_S1, S1
**
** Physical constants ++++++++++++++++++++++++++++++++++++++
**
**
** Coordinate systems ++++++++++++++++++++++++++++++++++++++
**
**
** Materials +++++++++++++++++++++++++++++++++++++++++++++++
**
*Material, Name=ABS
*Density
1.02E-09
*Elastic
2000, 0.394
*Expansion, Zero=20
7.4E-05
*Conductivity
0.2256
*Specific heat
1386000000
**
** Sections ++++++++++++++++++++++++++++++++++++++++++++++++
**
*Solid section, Elset=Internal_Selection-1_Solid_Section-1, Material=ABS
**
** Pre-tension sections ++++++++++++++++++++++++++++++++++++
**
**
** Constraints +++++++++++++++++++++++++++++++++++++++++++++
**
*Rigid body, Nset=Internal-1_MotorSurface, Ref node=4719, Rot node=4720
*Tie, Name=Solid_part-1_to_Solid_part-2, Position tolerance=0.01, Adjust=No
Internal_Selection-1_Solid_part-1_to_Solid_part-2_Slave, Internal_Selection-1_Solid_part-1_to_Solid_part-2_Master
*Tie, Name=Solid_part-3_to_Solid_part-2, Position tolerance=0.01, Adjust=No
Internal_Selection-1_Solid_part-3_to_Solid_part-2_Slave, Internal_Selection-1_Solid_part-3_to_Solid_part-2_Master
*Rigid body, Nset=Internal-1_BC, Ref node=4721, Rot node=4722
**
** Surface interactions ++++++++++++++++++++++++++++++++++++
**
**
** Contact pairs +++++++++++++++++++++++++++++++++++++++++++
**
**
** Amplitudes ++++++++++++++++++++++++++++++++++++++++++++++
**
**
** Initial conditions ++++++++++++++++++++++++++++++++++++++
**
**
** Steps +++++++++++++++++++++++++++++++++++++++++++++++++++
**
**
** Step-1 ++++++++++++++++++++++++++++++++++++++++++++++++++
**
*Step
*Frequency, Solver=Pardiso
15
**
** Controls ++++++++++++++++++++++++++++++++++++++++++++++++
**
**
** Output frequency ++++++++++++++++++++++++++++++++++++++++
**
**
** Boundary conditions +++++++++++++++++++++++++++++++++++++
**
*Boundary, op=New
** Name: Displacement_Rotation-1
*Boundary
4721, 1, 1, 0
4721, 2, 2, 0
4721, 3, 3, 0
4722, 1, 1, 0
4722, 2, 2, 0
4722, 3, 3, 0
**
** Loads +++++++++++++++++++++++++++++++++++++++++++++++++++
**
**
** Defined fields ++++++++++++++++++++++++++++++++++++++++++
**
**
** History outputs +++++++++++++++++++++++++++++++++++++++++
**
*Node print, Nset=MotorCenterPt_Ref_47181, Global=Yes
U
*Node print, Nset=MotorCenterPt_Rot_47182, Global=Yes
U
*Node print, Nset=BC_refpt_Ref_47201, Global=Yes
U
*Node print, Nset=BC_refpt_Rot_47202, Global=Yes
U
**
** Field outputs +++++++++++++++++++++++++++++++++++++++++++
**
*Node file
U
*El file
S, E, NOE
**
** End step ++++++++++++++++++++++++++++++++++++++++++++++++
**
*End step
** STEP - MATRIX STORAGE
*Step, Perturbation
*Frequency, Solver=MatrixStorage
*Output, Frequency=1
*Node file
RF, U
*El file
S, E, NOE
*End step
