**
** Heading +++++++++++++++++++++++++++++++++++++++++++++++++
**
*Heading
Hash: tS5Opjyf, Date: 10/07/2025, Unit system: MM_TON_S_C
**
** Nodes +++++++++++++++++++++++++++++++++++++++++++++++++++
**
*Node
1, 0.00000000E+000, -3.00000000E+001, -2.00000000E+001
2, 0.00000000E+000, 3.00000000E+001, -2.00000000E+001
3, 2.00000000E+002, 3.00000000E+001, -2.00000000E+001
4, 2.00000000E+002, -3.00000000E+001, -2.00000000E+001
5, 0.00000000E+000, 3.00000000E+001, 2.00000000E+001
6, 2.00000000E+002, 3.00000000E+001, 2.00000000E+001
7, 0.00000000E+000, -3.00000000E+001, 2.00000000E+001
8, 2.00000000E+002, -3.00000000E+001, 2.00000000E+001
9, 0.00000000E+000, -1.50000000E+001, -2.00000000E+001
10, 0.00000000E+000, 3.55271368E-015, -2.00000000E+001
11, 0.00000000E+000, 1.50000000E+001, -2.00000000E+001
12, 0.00000000E+000, -2.25000000E+001, -2.00000000E+001
13, 0.00000000E+000, -7.50000000E+000, -2.00000000E+001
14, 0.00000000E+000, 7.50000000E+000, -2.00000000E+001
15, 0.00000000E+000, 2.25000000E+001, -2.00000000E+001
16, 1.85714286E+002, 3.00000000E+001, -2.00000000E+001
17, 1.71428571E+002, 3.00000000E+001, -2.00000000E+001
18, 1.57142857E+002, 3.00000000E+001, -2.00000000E+001
19, 1.42857143E+002, 3.00000000E+001, -2.00000000E+001
20, 1.28571429E+002, 3.00000000E+001, -2.00000000E+001
** ... 2226 like lines cut
**
** Elements ++++++++++++++++++++++++++++++++++++++++++++++++
**
*Element, Type=C3D20R, Elset=Solid_part-1
1, 157, 50, 4, 43, 555, 476, 154, 529, 196, 63, 46, 197, 595, 490, 532,
596, 594, 491, 156, 539
2, 555, 476, 154, 529, 345, 117, 8, 146, 595, 490, 532, 596, 388, 130, 150,
387, 597, 489, 155, 533
3, 158, 157, 43, 44, 556, 555, 529, 530, 198, 197, 47, 199, 599, 596, 534,
600, 598, 594, 539, 540
4, 556, 555, 529, 530, 344, 345, 146, 145, 599, 596, 534, 600, 386, 387, 149,
385, 601, 597, 533, 535
5, 159, 158, 44, 45, 557, 556, 530, 531, 200, 199, 48, 201, 603, 600, 536,
604, 602, 598, 540, 541
6, 557, 556, 530, 531, 343, 344, 145, 144, 603, 600, 536, 604, 384, 385, 148,
383, 605, 601, 535, 537
7, 16, 159, 45, 3, 290, 557, 531, 107, 202, 201, 49, 29, 606, 604, 538,
304, 303, 602, 541, 108
8, 290, 557, 531, 107, 80, 343, 144, 6, 606, 604, 538, 304, 382, 383, 147,
93, 305, 605, 537, 109
9, 160, 51, 50, 157, 558, 477, 476, 555, 203, 64, 196, 204, 608, 493, 595,
609, 607, 494, 491, 594
10, 558, 477, 476, 555, 348, 118, 117, 345, 608, 493, 595, 609, 395, 131, 388,
394, 610, 492, 489, 597
** ... 204 like lines cut
*Element, Type=C3D20, Elset=Solid_part-3
414, 1561, 1474, 1440, 1467, 1919, 1782, 1556, 1859, 1582, 1481, 1470, 1583, 1983, 1806, 1876,
1984, 1982, 1807, 1560, 1883
415, 1919, 1782, 1556, 1859, 1920, 1781, 1555, 1856, 1983, 1806, 1876, 1984, 1986, 1804, 1869,
1987, 1985, 1805, 1559, 1877
416, 1920, 1781, 1555, 1856, 1921, 1780, 1554, 1853, 1986, 1804, 1869, 1987, 1989, 1802, 1862,
1990, 1988, 1803, 1558, 1870
417, 1921, 1780, 1554, 1853, 1709, 1525, 1444, 1542, 1989, 1802, 1862, 1990, 1734, 1532, 1546,
1733, 1991, 1801, 1557, 1863
418, 1562, 1561, 1467, 1468, 1922, 1919, 1859, 1860, 1584, 1583, 1471, 1585, 1993, 1984, 1878,
1994, 1992, 1982, 1883, 1884
419, 1922, 1919, 1859, 1860, 1923, 1920, 1856, 1857, 1993, 1984, 1878, 1994, 1996, 1987, 1871,
1997, 1995, 1985, 1877, 1879
420, 1923, 1920, 1856, 1857, 1924, 1921, 1853, 1854, 1996, 1987, 1871, 1997, 1999, 1990, 1864,
2000, 1998, 1988, 1870, 1872
421, 1924, 1921, 1853, 1854, 1708, 1709, 1542, 1541, 1999, 1990, 1864, 2000, 1732, 1733, 1545,
1731, 2001, 1991, 1863, 1865
422, 1563, 1562, 1468, 1469, 1925, 1922, 1860, 1861, 1586, 1585, 1472, 1587, 2003, 1994, 1880,
2004, 2002, 1992, 1884, 1885
423, 1925, 1922, 1860, 1861, 1926, 1923, 1857, 1858, 2003, 1994, 1880, 2004, 2006, 1997, 1873,
2007, 2005, 1995, 1879, 1881
** ... 236 like lines cut
*Element, Type=C3D10, Elset=Solid_part-2
542, 2272, 2345, 2284, 2280, 2707, 2708, 2466, 2476, 2709, 2477
543, 2281, 2345, 2274, 2280, 2710, 2711, 2455, 2456, 2709, 2452
544, 2298, 2343, 2316, 2321, 2712, 2713, 2602, 2631, 2714, 2654
545, 2318, 2323, 2327, 2345, 2627, 2644, 2643, 2715, 2716, 2717
546, 2288, 2284, 2344, 2345, 2494, 2718, 2719, 2720, 2708, 2721
547, 2240, 2338, 2337, 2267, 2693, 2696, 2691, 2390, 2722, 2723
548, 2285, 2290, 2344, 2279, 2495, 2724, 2725, 2472, 2496, 2726
549, 2344, 2286, 2290, 2289, 2727, 2499, 2724, 2728, 2500, 2498
550, 2335, 2330, 2348, 2331, 2680, 2729, 2730, 2683, 2664, 2731
551, 2238, 2237, 2266, 2336, 2386, 2388, 2387, 2688, 2687, 2732
552, 2344, 2286, 2287, 2276, 2727, 2491, 2733, 2734, 2482, 2492
553, 2312, 2347, 2296, 2297, 2735, 2736, 2590, 2588, 2737, 2532
554, 2246, 2247, 2270, 2345, 2413, 2414, 2410, 2738, 2739, 2740
555, 2283, 2345, 2287, 2344, 2741, 2742, 2484, 2743, 2721, 2733
556, 2284, 2345, 2288, 2280, 2708, 2720, 2494, 2477, 2709, 2493
557, 2227, 2228, 2259, 2330, 2356, 2358, 2357, 2658, 2661, 2744
558, 2281, 2345, 2288, 2278, 2710, 2720, 2487, 2457, 2745, 2486
559, 2244, 2269, 2344, 2245, 2401, 2746, 2747, 2407, 2406, 2748
560, 2340, 2292, 2306, 2347, 2749, 2579, 2750, 2751, 2752, 2753
561, 2294, 2232, 2346, 2293, 2521, 2754, 2755, 2523, 2520, 2756
** ... 298 like lines cut
**
** Node sets +++++++++++++++++++++++++++++++++++++++++++++++
**
*Nset, Nset=Internal-1_MotorSurface
1439, 1440, 1442, 1444, 1467, 1468, 1469, 1470, 1471, 1472, 1473, 1511, 1512, 1513, 1514, 1515, 
1516, 1517, 1540, 1541, 1542, 1543, 1544, 1545, 1546, 1554, 1555, 1556, 1557, 1558, 1559, 1560, 
1853, 1854, 1855, 1856, 1857, 1858, 1859, 1860, 1861, 1862, 1863, 1864, 1865, 1866, 1867, 1868, 
1869, 1870, 1871, 1872, 1873, 1874, 1875, 1876, 1877, 1878, 1879, 1880, 1881, 1882, 1883, 1884, 
1885
*Nset, Nset=Internal-1_BC
1, 2, 5, 7, 9, 10, 11, 12, 13, 14, 15, 77, 78, 79, 110, 111, 
112, 113, 114, 115, 116, 151, 152, 153, 542, 543, 544, 545, 546, 547, 548, 549, 
550, 551, 552, 553, 554
*Nset, Nset=Internal-1_Internal_Selection-1_Solid_part-1_to_Solid_part-2_Master
3, 4, 6, 8, 43, 44, 45, 46, 47, 48, 49, 107, 108, 109, 144, 145, 
146, 147, 148, 149, 150, 154, 155, 156, 529, 530, 531, 532, 533, 534, 535, 536, 
537, 538, 539, 540, 541
*Nset, Nset=Internal-1_Internal_Selection-1_Solid_part-1_to_Solid_part-2_Slave
2224, 2225, 2237, 2238, 2239, 2240, 2241, 2248, 2249, 2250, 2251, 2252, 2336, 2337, 2338, 2339, 
2340, 2341, 2342, 2384, 2386, 2389, 2392, 2403, 2404, 2405, 2411, 2412, 2417, 2434, 2503, 2504, 
2505, 2506, 2507, 2509, 2512, 2515, 2561, 2564, 2686, 2687, 2688, 2689, 2690, 2691, 2692, 2693, 
2694, 2695, 2696, 2697, 2698, 2699, 2700, 2701, 2702, 2703, 2704, 2705, 2706
*Nset, Nset=Internal-1_Internal_Selection-1_Solid_part-3_to_Solid_part-2_Master
1437, 1438, 1441, 1443, 1445, 1446, 1447, 1448, 1449, 1450, 1451, 1489, 1490, 1491, 1492, 1493, 
1494, 1495, 1518, 1519, 1520, 1521, 1522, 1523, 1524, 1547, 1548, 1549, 1550, 1551, 1552, 1553, 
1886, 1887, 1888, 1889, 1890, 1891, 1892, 1893, 1894, 1895, 1896, 1897, 1898, 1899, 1900, 1901, 
1902, 1903, 1904, 1905, 1906, 1907, 1908, 1909, 1910, 1911, 1912, 1913, 1914, 1915, 1916, 1917, 
1918
*Nset, Nset=Internal-1_Internal_Selection-1_Solid_part-3_to_Solid_part-2_Slave
2222, 2223, 2226, 2227, 2228, 2229, 2230, 2253, 2254, 2255, 2256, 2257, 2329, 2330, 2331, 2332, 
2333, 2334, 2335, 2350, 2353, 2356, 2360, 2364, 2368, 2517, 2534, 2536, 2539, 2543, 2547, 2656, 
2657, 2658, 2659, 2660, 2661, 2662, 2663, 2664, 2665, 2666, 2667, 2668, 2669, 2670, 2671, 2672, 
2673, 2674, 2675, 2676, 2677, 2678, 2679, 2680, 2681, 2682, 2683, 2684, 2685
**
** Additional node sets ++++++++++++++++++++++++++++++++++++
**
*Nset, Nset=MotorCenterPt_Ref_29131
2914
*Nset, Nset=MotorCenterPt_Rot_29132
2915
*Nset, Nset=BC_refpt_Ref_29151
2916
*Nset, Nset=BC_refpt_Rot_29152
2917

**
** Element sets ++++++++++++++++++++++++++++++++++++++++++++
**
*Elset, Elset=Internal_Selection-1_Solid_Section-1
Solid_part-1, 
Solid_part-3, 
Solid_part-2
*Elset, Elset=Internal-1_MotorSurface_S5
414, 415, 416, 417, 418, 419, 420, 421, 422, 423, 424, 425, 426, 427, 428, 429
*Elset, Elset=Internal-1_BC_S3
105, 106, 107, 108, 109, 110, 111, 112
*Elset, Elset=Internal-1_Internal_Selection-1_Solid_part-1_to_Solid_part-2_Master_S5
1, 2, 3, 4, 5, 6, 7, 8
*Elset, Elset=Internal-1_Internal_Selection-1_Solid_part-1_to_Solid_part-2_Slave_S1
547, 572, 580, 644, 685, 732, 836, 841, 850
*Elset, Elset=Internal-1_Internal_Selection-1_Solid_part-1_to_Solid_part-2_Slave_S2
551, 594, 716, 730, 731, 765, 814
*Elset, Elset=Internal-1_Internal_Selection-1_Solid_part-1_to_Solid_part-2_Slave_S3
583, 741, 782, 792, 818
*Elset, Elset=Internal-1_Internal_Selection-1_Solid_part-1_to_Solid_part-2_Slave_S4
757, 775, 788
*Elset, Elset=Internal-1_Internal_Selection-1_Solid_part-3_to_Solid_part-2_Master_S3
526, 527, 528, 529, 530, 531, 532, 533, 534, 535, 536, 537, 538, 539, 540, 541
*Elset, Elset=Internal-1_Internal_Selection-1_Solid_part-3_to_Solid_part-2_Slave_S2
550, 557, 574, 589, 596, 654, 667, 698, 721, 723, 828
*Elset, Elset=Internal-1_Internal_Selection-1_Solid_part-3_to_Solid_part-2_Slave_S4
608, 703
*Elset, Elset=Internal-1_Internal_Selection-1_Solid_part-3_to_Solid_part-2_Slave_S3
635, 648, 717, 764, 831, 834, 851, 858
*Elset, Elset=Internal-1_Internal_Selection-1_Solid_part-3_to_Solid_part-2_Slave_S1
641, 672, 674
**
** Surfaces ++++++++++++++++++++++++++++++++++++++++++++++++
**
*Surface, Name=MotorSurface, Type=Element
Internal-1_MotorSurface_S5, S5
*Surface, Name=BC, Type=Element
Internal-1_BC_S3, S3
*Surface, Name=Internal_Selection-1_Solid_part-1_to_Solid_part-2_Master, Type=Element
Internal-1_Internal_Selection-1_Solid_part-1_to_Solid_part-2_Master_S5, S5
*Surface, Name=Internal_Selection-1_Solid_part-1_to_Solid_part-2_Slave, Type=Element
Internal-1_Internal_Selection-1_Solid_part-1_to_Solid_part-2_Slave_S1, S1
Internal-1_Internal_Selection-1_Solid_part-1_to_Solid_part-2_Slave_S2, S2
Internal-1_Internal_Selection-1_Solid_part-1_to_Solid_part-2_Slave_S3, S3
Internal-1_Internal_Selection-1_Solid_part-1_to_Solid_part-2_Slave_S4, S4
*Surface, Name=Internal_Selection-1_Solid_part-3_to_Solid_part-2_Master, Type=Element
Internal-1_Internal_Selection-1_Solid_part-3_to_Solid_part-2_Master_S3, S3
*Surface, Name=Internal_Selection-1_Solid_part-3_to_Solid_part-2_Slave, Type=Element
Internal-1_Internal_Selection-1_Solid_part-3_to_Solid_part-2_Slave_S2, S2
Internal-1_Internal_Selection-1_Solid_part-3_to_Solid_part-2_Slave_S4, S4
Internal-1_Internal_Selection-1_Solid_part-3_to_Solid_part-2_Slave_S3, S3
Internal-1_Internal_Selection-1_Solid_part-3_to_Solid_part-2_Slave_S1, S1
**
** Physical constants ++++++++++++++++++++++++++++++++++++++
**
**
** Coordinate systems ++++++++++++++++++++++++++++++++++++++
**
**
** Materials +++++++++++++++++++++++++++++++++++++++++++++++
**
*Material, Name=ABS
*Density
1.02E-09
*Elastic
2000, 0.394
*Expansion, Zero=20
7.4E-05
*Conductivity
0.2256
*Specific heat
1386000000
**
** Sections ++++++++++++++++++++++++++++++++++++++++++++++++
**
*Solid section, Elset=Internal_Selection-1_Solid_Section-1, Material=ABS
**
** Pre-tension sections ++++++++++++++++++++++++++++++++++++
**
**
** Constraints +++++++++++++++++++++++++++++++++++++++++++++
**
*Rigid body, Nset=Internal-1_MotorSurface, Ref node=2914, Rot node=2915
*Tie, Name=Solid_part-1_to_Solid_part-2, Position tolerance=0.01, Adjust=No
Internal_Selection-1_Solid_part-1_to_Solid_part-2_Slave, Internal_Selection-1_Solid_part-1_to_Solid_part-2_Master
*Tie, Name=Solid_part-3_to_Solid_part-2, Position tolerance=0.01, Adjust=No
Internal_Selection-1_Solid_part-3_to_Solid_part-2_Slave, Internal_Selection-1_Solid_part-3_to_Solid_part-2_Master
*Rigid body, Nset=Internal-1_BC, Ref node=2916, Rot node=2917
**
** Surface interactions ++++++++++++++++++++++++++++++++++++
**
**
** Contact pairs +++++++++++++++++++++++++++++++++++++++++++
**
**
** Amplitudes ++++++++++++++++++++++++++++++++++++++++++++++
**
**
** Initial conditions ++++++++++++++++++++++++++++++++++++++
**
**
** Steps +++++++++++++++++++++++++++++++++++++++++++++++++++
**
**
** Step-1 ++++++++++++++++++++++++++++++++++++++++++++++++++
**
*Step
*Frequency, Solver=Pardiso
15
**
** Controls ++++++++++++++++++++++++++++++++++++++++++++++++
**
**
** Output frequency ++++++++++++++++++++++++++++++++++++++++
**
**
** Boundary conditions +++++++++++++++++++++++++++++++++++++
**
*Boundary, op=New
** Name: Displacement_Rotation-1
*Boundary
2916, 1, 1, 0
2916, 2, 2, 0
2916, 3, 3, 0
2917, 1, 1, 0
2917, 2, 2, 0
2917, 3, 3, 0
**
** Loads +++++++++++++++++++++++++++++++++++++++++++++++++++
**
**
** Defined fields ++++++++++++++++++++++++++++++++++++++++++
**
**
** History outputs +++++++++++++++++++++++++++++++++++++++++
**
*Node print, Nset=MotorCenterPt_Ref_29131, Global=Yes
U
*Node print, Nset=MotorCenterPt_Rot_29132, Global=Yes
U
*Node print, Nset=BC_refpt_Ref_29151, Global=Yes
U
*Node print, Nset=BC_refpt_Rot_29152, Global=Yes
U
**
** Field outputs +++++++++++++++++++++++++++++++++++++++++++
**
*Node file
U
*El file
S, E, NOE
**
** End step ++++++++++++++++++++++++++++++++++++++++++++++++
**
*End step
** STEP - MATRIX STORAGE
*Step, Perturbation
*Frequency, Solver=MatrixStorage
*Output, Frequency=1
*Node file
RF, U
*El file
S, E, NOE
*End step
