**
** Heading +++++++++++++++++++++++++++++++++++++++++++++++++
**
*Heading
Hash: yhNVwU6Q, Date: 10/07/2025, Unit system: M_KG_S_C
**
** Nodes +++++++++++++++++++++++++++++++++++++++++++++++++++
**
*Node
1, 0.00000000E+000, -1.00000000E-002, -5.00000000E-003
2, 0.00000000E+000, 1.00000000E-002, -5.00000000E-003
3, 2.00000000E-001, 1.00000000E-002, -5.00000000E-003
4, 2.00000000E-001, -1.00000000E-002, -5.00000000E-003
5, 0.00000000E+000, 1.00000000E-002, 5.00000000E-003
6, 2.00000000E-001, 1.00000000E-002, 5.00000000E-003
7, 0.00000000E+000, -1.00000000E-002, 5.00000000E-003
8, 2.00000000E-001, -1.00000000E-002, 5.00000000E-003
9, 0.00000000E+000, -5.00000000E-003, -5.00000000E-003
10, 0.00000000E+000, -3.46944695E-018, -5.00000000E-003
11, 0.00000000E+000, 5.00000000E-003, -5.00000000E-003
12, 0.00000000E+000, -7.50000000E-003, -5.00000000E-003
13, 0.00000000E+000, -2.50000000E-003, -5.00000000E-003
14, 0.00000000E+000, 2.50000000E-003, -5.00000000E-003
15, 0.00000000E+000, 7.50000000E-003, -5.00000000E-003
16, 1.95000000E-001, 1.00000000E-002, -5.00000000E-003
17, 1.90000000E-001, 1.00000000E-002, -5.00000000E-003
18, 1.85000000E-001, 1.00000000E-002, -5.00000000E-003
19, 1.80000000E-001, 1.00000000E-002, -5.00000000E-003
20, 1.75000000E-001, 1.00000000E-002, -5.00000000E-003
** ... 2097 like lines cut
**
** Elements ++++++++++++++++++++++++++++++++++++++++++++++++
**
*Element, Type=C3D20, Elset=Solid_part-1
1, 365, 102, 4, 95, 1491, 1308, 362, 1465, 482, 141, 98, 483, 1609, 1348, 1468,
1610, 1608, 1349, 364, 1475
2, 1491, 1308, 362, 1465, 917, 273, 8, 354, 1609, 1348, 1468, 1610, 1038, 312, 358,
1037, 1611, 1347, 363, 1469
3, 366, 365, 95, 96, 1492, 1491, 1465, 1466, 484, 483, 99, 485, 1613, 1610, 1470,
1614, 1612, 1608, 1475, 1476
4, 1492, 1491, 1465, 1466, 916, 917, 354, 353, 1613, 1610, 1470, 1614, 1036, 1037, 357,
1035, 1615, 1611, 1469, 1471
5, 367, 366, 96, 97, 1493, 1492, 1466, 1467, 486, 485, 100, 487, 1617, 1614, 1472,
1618, 1616, 1612, 1476, 1477
6, 1493, 1492, 1466, 1467, 915, 916, 353, 352, 1617, 1614, 1472, 1618, 1034, 1035, 356,
1033, 1619, 1615, 1471, 1473
7, 16, 367, 97, 3, 758, 1493, 1467, 263, 488, 487, 101, 55, 1620, 1618, 1474,
798, 797, 1616, 1477, 264
8, 758, 1493, 1467, 263, 184, 915, 352, 6, 1620, 1618, 1474, 798, 1032, 1033, 355,
223, 799, 1619, 1473, 265
9, 368, 103, 102, 365, 1494, 1309, 1308, 1491, 489, 142, 482, 490, 1622, 1351, 1609,
1623, 1621, 1352, 1349, 1608
10, 1494, 1309, 1308, 1491, 920, 274, 273, 917, 1622, 1351, 1609, 1623, 1045, 313, 1038,
1044, 1624, 1350, 1347, 1611
** ... 620 like lines cut
**
** Node sets +++++++++++++++++++++++++++++++++++++++++++++++
**
*Nset, Nset=BC_nodes
1, 2, 5, 7, 9, 10, 11, 12, 13, 14, 15, 181, 182, 183, 266, 267, 
268, 269, 270, 271, 272, 359, 360, 361, 1478, 1479, 1480, 1481, 1482, 1483, 1484, 1485, 
1486, 1487, 1488, 1489, 1490
**
** Element sets ++++++++++++++++++++++++++++++++++++++++++++
**
*Elset, Elset=Internal_Selection-1_Solid_Section-1
Solid_part-1
**
** Surfaces ++++++++++++++++++++++++++++++++++++++++++++++++
**
**
** Physical constants ++++++++++++++++++++++++++++++++++++++
**
**
** Coordinate systems ++++++++++++++++++++++++++++++++++++++
**
**
** Materials +++++++++++++++++++++++++++++++++++++++++++++++
**
*Material, Name=S185
*Density
7800
*Elastic
210000000000, 0.28
*Expansion, Zero=20
1.1E-05
*Conductivity
14
*Specific heat
440
**
** Sections ++++++++++++++++++++++++++++++++++++++++++++++++
**
*Solid section, Elset=Internal_Selection-1_Solid_Section-1, Material=S185
**
** Pre-tension sections ++++++++++++++++++++++++++++++++++++
**
**
** Constraints +++++++++++++++++++++++++++++++++++++++++++++
**
**
** Surface interactions ++++++++++++++++++++++++++++++++++++
**
**
** Contact pairs +++++++++++++++++++++++++++++++++++++++++++
**
**
** Amplitudes ++++++++++++++++++++++++++++++++++++++++++++++
**
**
** Initial conditions ++++++++++++++++++++++++++++++++++++++
**
**
** Steps +++++++++++++++++++++++++++++++++++++++++++++++++++
**
**
** Step-1 ++++++++++++++++++++++++++++++++++++++++++++++++++
**
*Step
*Frequency, Solver=Pardiso, Storage=Yes
15
**
** Controls ++++++++++++++++++++++++++++++++++++++++++++++++
**
**
** Output frequency ++++++++++++++++++++++++++++++++++++++++
**
**
** Boundary conditions +++++++++++++++++++++++++++++++++++++
**
*Boundary, op=New
**
** Loads +++++++++++++++++++++++++++++++++++++++++++++++++++
**
**
** Defined fields ++++++++++++++++++++++++++++++++++++++++++
**
**
** History outputs +++++++++++++++++++++++++++++++++++++++++
**
**
** Field outputs +++++++++++++++++++++++++++++++++++++++++++
**
*Node file
RF, U
*El file
S, E, NOE
**
** End step ++++++++++++++++++++++++++++++++++++++++++++++++
**
*End step
*Step, Perturbation

*Frequency, Solver=MatrixStorage

*Output, Frequency=1

*Node file
RF,U
*El file
S,E,NOE
*End step
